pglib_opf_case30_ieee/dapi/pglib_opf_case30_ieee_2regions_dapi.m
% -------------------------------------------------------------------------
% Partitioned MATPOWER Case File
% Copyright (c) 2025 Milad Hasanzadeh
% Generated on: 2026-06-14
% This file contains partitioned data for 2 regions


% -------------------- mpc_regionR1 --------------------

mpc_regionR1.version = '2';
mpc_regionR1.baseMVA = 100.0000;
mpc_regionR1.bus = [
%	bus_i       type        Pd          Qd          Gs          Bs          area        Vm          Va          baseKV      zone        Vmax        Vmin        
	 1	 3	 0	 0	 0	 0	 1	 1	 0	 132	 1	 1.06	 0.94;
	 2	 2	 36.08	 12.7	 0	 0	 1	 1	 0	 132	 1	 1.06	 0.94;
	 3	 1	 3.99	 1.2	 0	 0	 1	 1	 0	 132	 1	 1.06	 0.94;
	 4	 1	 12.64	 1.6	 0	 0	 1	 1	 0	 132	 1	 1.06	 0.94;
	 5	 2	 156.64	 19	 0	 0	 1	 1	 0	 132	 1	 1.06	 0.94;
	 6	 1	 0	 0	 0	 0	 1	 1	 0	 132	 1	 1.06	 0.94;
	 7	 1	 37.91	 10.9	 0	 0	 1	 1	 0	 132	 1	 1.06	 0.94;
	 8	 1	 0	 0	 0	 0	 1	 1	 0	 1	 1	 1.06	 0.94;
	 9	 1	 9.64	 2	 0	 19	 1	 1	 0	 33	 1	 1.06	 0.94;
	 10	 2	 0	 0	 0	 0	 1	 1	 0	 11	 1	 1.06	 0.94;
	 11	 1	 18.62	 7.5	 0	 0	 1	 1	 0	 33	 1	 1.06	 0.94;
	 12	 2	 0	 0	 0	 0	 1	 1	 0	 11	 1	 1.06	 0.94;
	 13	 1	 10.31	 1.6	 0	 0	 1	 1	 0	 33	 1	 1.06	 0.94;
	 14	 1	 13.64	 2.5	 0	 0	 1	 1	 0	 33	 1	 1.06	 0.94;
	 15	 1	 5.82	 1.8	 0	 0	 1	 1	 0	 33	 1	 1.06	 0.94;
	 16	 1	 14.97	 5.8	 0	 0	 1	 1	 0	 33	 1	 1.06	 0.94;
	 17	 1	 5.32	 0.9	 0	 0	 1	 1	 0	 33	 1	 1.06	 0.94;
	 18	 1	 15.8	 3.4	 0	 0	 1	 1	 0	 33	 1	 1.06	 0.94;
	 19	 1	 3.66	 0.7	 0	 0	 1	 1	 0	 33	 1	 1.06	 0.94;
	 20	 1	 29.1	 11.2	 0	 0	 1	 1	 0	 33	 1	 1.06	 0.94;
	 21	 1	 0	 0	 0	 0	 1	 1	 0	 33	 1	 1.06	 0.94;
	 22	 1	 5.32	 1.6	 0	 0	 1	 1	 0	 33	 1	 1.06	 0.94;
];

mpc_regionR1.gen = [
%	bus         Pg          Qg          Qmax        Qmin        Vg          mBase       status      Pmax        Pmin        Pc1         Pc2         Qc1min      Qc1max      Qc2min      Qc2max      ramp_agc    ramp_10     ramp_30     ramp_q      apf         
	 1	 175.5	 0	 176	-176	 1	 100	 1	 351	 0;
	 2	 171	 0	 171	-171	 1	 100	 1	 342	 0;
	 5	 0	 0	 40	-40	 1	 100	 1	 0	 0;
	 10	 0	 3	 24	-18	 1	 100	 1	 0	 0;
	 12	 0	 9	 24	-6	 1	 100	 1	 0	 0;
];

mpc_regionR1.branch = [
%	fbus        tbus        r           x           b           rateA       rateB       rateC       ratio       angle       status      angmin      angmax      
	 1	 2	 0.0192	 0.0575	 0.0528	 138	 138	 138	 0	 0	 1	-30	 30;
	 1	 3	 0.0452	 0.1652	 0.0408	 152	 152	 152	 0	 0	 1	-30	 30;
	 2	 4	 0.057	 0.1737	 0.0368	 139	 139	 139	 0	 0	 1	-30	 30;
	 3	 4	 0.0132	 0.0379	 0.0084	 135	 135	 135	 0	 0	 1	-30	 30;
	 2	 5	 0.0472	 0.1983	 0.0418	 144	 144	 144	 0	 0	 1	-30	 30;
	 2	 6	 0.0581	 0.1763	 0.0374	 139	 139	 139	 0	 0	 1	-30	 30;
	 4	 6	 0.0119	 0.0414	 0.009	 148	 148	 148	 0	 0	 1	-30	 30;
	 5	 7	 0.046	 0.116	 0.0204	 127	 127	 127	 0	 0	 1	-30	 30;
	 6	 7	 0.0267	 0.082	 0.017	 140	 140	 140	 0	 0	 1	-30	 30;
	 6	 8	 0	 0.208	 0	 142	 142	 142	 0.978	 0	 1	-30	 30;
	 6	 9	 0	 0.556	 0	 53	 53	 53	 0.969	 0	 1	-30	 30;
	 8	 10	 0	 0.208	 0	 142	 142	 142	 1	 0	 1	-30	 30;
	 8	 9	 0	 0.11	 0	 267	 267	 267	 1	 0	 1	-30	 30;
	 4	 11	 0	 0.256	 0	 115	 115	 115	 0.932	 0	 1	-30	 30;
	 11	 12	 0	 0.14	 0	 210	 210	 210	 1	 0	 1	-30	 30;
	 11	 13	 0.1231	 0.2559	 0	 29	 29	 29	 0	 0	 1	-30	 30;
	 11	 14	 0.0662	 0.1304	 0	 29	 29	 29	 0	 0	 1	-30	 30;
	 11	 15	 0.0945	 0.1987	 0	 30	 30	 30	 0	 0	 1	-30	 30;
	 13	 14	 0.221	 0.1997	 0	 20	 20	 20	 0	 0	 1	-30	 30;
	 15	 16	 0.0524	 0.1923	 0	 38	 38	 38	 0	 0	 1	-30	 30;
	 14	 17	 0.1073	 0.2185	 0	 29	 29	 29	 0	 0	 1	-30	 30;
	 17	 18	 0.0639	 0.1292	 0	 29	 29	 29	 0	 0	 1	-30	 30;
	 18	 19	 0.034	 0.068	 0	 29	 29	 29	 0	 0	 1	-30	 30;
	 9	 19	 0.0936	 0.209	 0	 30	 30	 30	 0	 0	 1	-30	 30;
	 9	 16	 0.0324	 0.0845	 0	 33	 33	 33	 0	 0	 1	-30	 30;
	 9	 20	 0.0348	 0.0749	 0	 30	 30	 30	 0	 0	 1	-30	 30;
	 9	 21	 0.0727	 0.1499	 0	 29	 29	 29	 0	 0	 1	-30	 30;
	 20	 21	 0.0116	 0.0236	 0	 29	 29	 29	 0	 0	 1	-30	 30;
	 14	 22	 0.1	 0.202	 0	 29	 29	 29	 0	 0	 1	-30	 30;
];

mpc_regionR1.gencost = [
%	2           startup     shutdown    n           c(n-1)...c0 
	 2	 0	 0	 3	 0	 18.421528	 0;
	 2	 0	 0	 3	 0	 52.182254	 0;
	 2	 0	 0	 3	 0	 0	 0;
	 2	 0	 0	 3	 0	 0	 0;
	 2	 0	 0	 3	 0	 0	 0;
];


% -------------------- mpc_regionR2 --------------------

mpc_regionR2.version = '2';
mpc_regionR2.baseMVA = 100.0000;
mpc_regionR2.bus = [
%	bus_i       type        Pd          Qd          Gs          Bs          area        Vm          Va          baseKV      zone        Vmax        Vmin        
	 1	 2	 49.89	 30	 0	 0	 1	 1	 0	 132	 1	 1.06	 0.94;
	 2	 1	 14.47	 6.7	 0	 4.3	 1	 1	 0	 33	 1	 1.06	 0.94;
	 3	 1	 0	 0	 0	 0	 1	 1	 0	 33	 1	 1.06	 0.94;
	 4	 1	 5.82	 2.3	 0	 0	 1	 1	 0	 33	 1	 1.06	 0.94;
	 5	 1	 0	 0	 0	 0	 1	 1	 0	 33	 1	 1.06	 0.94;
	 6	 1	 0	 0	 0	 0	 1	 1	 0	 132	 1	 1.06	 0.94;
	 7	 1	 3.99	 0.9	 0	 0	 1	 1	 0	 33	 1	 1.06	 0.94;
	 8	 1	 17.63	 1.9	 0	 0	 1	 1	 0	 33	 1	 1.06	 0.94;
];

mpc_regionR2.gen = [
%	bus         Pg          Qg          Qmax        Qmin        Vg          mBase       status      Pmax        Pmin        Pc1         Pc2         Qc1min      Qc1max      Qc2min      Qc2max      ramp_agc    ramp_10     ramp_30     ramp_q      apf         
	 1	 0	 0	 230.4	-230.4	 1	 100	 1	 0	 0;
];

mpc_regionR2.branch = [
%	fbus        tbus        r           x           b           rateA       rateB       rateC       ratio       angle       status      angmin      angmax      
	 2	 3	 0.1885	 0.3292	 0	 27	 27	 27	 0	 0	 1	-30	 30;
	 3	 4	 0.2544	 0.38	 0	 25	 25	 25	 0	 0	 1	-30	 30;
	 3	 5	 0.1093	 0.2087	 0	 28	 28	 28	 0	 0	 1	-30	 30;
	 6	 5	 0	 0.396	 0	 75	 75	 75	 0.968	 0	 1	-30	 30;
	 5	 7	 0.2198	 0.4153	 0	 28	 28	 28	 0	 0	 1	-30	 30;
	 5	 8	 0.3202	 0.6027	 0	 28	 28	 28	 0	 0	 1	-30	 30;
	 7	 8	 0.2399	 0.4533	 0	 28	 28	 28	 0	 0	 1	-30	 30;
	 1	 6	 0.0636	 0.2	 0.0428	 140	 140	 140	 0	 0	 1	-30	 30;
];

mpc_regionR2.gencost = [
%	2           startup     shutdown    n           c(n-1)...c0 
	 2	 0	 0	 3	 0	 0	 0;
];


% ---------- Interregional Tie-Line Information ----------
% Each row: {From_Region (string), To_Region (string), Branch_Data (1x13 array)}
% Branch_Data: {fbus, tbus, r, x, b, rateA, rateB, rateC, ratio, angle, status, angmin, angmax}

interregional_tielines_total = {
	{'mpc_regionR1', 'mpc_regionR2', [ 6	 1	 0.012	 0.042	 0.009	 148	 148	 148	 0	 0	 1	-30	 30]},
	{'mpc_regionR1', 'mpc_regionR2', [ 21	 2	 0.115	 0.179	 0	 26	 26	 26	 0	 0	 1	-30	 30]},
	{'mpc_regionR1', 'mpc_regionR2', [ 22	 2	 0.132	 0.27	 0	 29	 29	 29	 0	 0	 1	-30	 30]},
	{'mpc_regionR1', 'mpc_regionR2', [ 6	 6	 0.0169	 0.0599	 0.013	 149	 149	 149	 0	 0	 1	-30	 30]},
};

